@<TRIPOS>MOLECULE
3f9m_ligand
 37 39 0 0 0
SMALL
USER_CHARGES

@<TRIPOS>ATOM
      1 C         -13.1550    6.8740   19.7340 C.3     1  UNL1        0.0178
      2 C         -10.7470    7.8260   22.3210 C.ar    1  UNL1        0.1880
      3 C          -8.4000   -2.8120   23.2110 C.ar    1  UNL1        0.1783
      4 C         -11.7030    8.1420   21.3690 C.ar    1  UNL1        0.0740
      5 C          -7.7610   -3.4020   22.1330 C.ar    1  UNL1        0.0466
      6 C          -9.8100    2.5350   20.4960 C.ar    1  UNL1       -0.0311
      7 C          -8.5790    3.9610   18.4690 C.ar    1  UNL1       -0.0039
      8 C          -8.7240    1.9900   19.8170 C.ar    1  UNL1        0.0590
      9 C          -8.1040    2.7000   18.7890 C.ar    1  UNL1        0.0396
     10 C          -9.6680    4.5020   19.1430 C.ar    1  UNL1        0.1391
     11 C         -10.2840    3.7910   20.1680 C.ar    1  UNL1        0.0558
     12 C          -8.3710   -1.0920   21.8220 C.ar    1  UNL1        0.3167
     13 C         -11.4480    6.0510   21.4100 C.ar    1  UNL1        0.3252
     14 C          -8.2670    0.6360   20.2250 C.2     1  UNL1        0.2546
     15 N          -7.0470    2.1990   18.0970 N.pl3   1  UNL1       -0.3573
     16 N          -8.7310   -1.5050   23.0230 N.ar    1  UNL1       -0.1914
     17 N         -10.5840    6.4790   22.3400 N.ar    1  UNL1       -0.1886
     18 N          -8.6010    0.1890   21.4320 N.am    1  UNL1       -0.2220
     19 N         -12.1380    7.0100   20.8020 N.ar    1  UNL1       -0.2865
     20 O          -7.6480   -0.0420   19.4370 O.2     1  UNL1       -0.2696
     21 F         -10.1000    5.7320   18.7800 F       1  UNL1       -0.2043
     22 S          -7.5780   -2.2750   20.8330 S.2     1  UNL1       -0.0054
     23 S         -11.6550    4.3790   21.0020 S.3     1  UNL1        0.0021
     24 H         -13.5200    7.8428   19.4636 H       1  UNL1        0.0458
     25 H         -13.9664    6.2734   20.0886 H       1  UNL1        0.0458
     26 H         -12.7134    6.4076   18.8782 H       1  UNL1        0.0458
     27 H         -10.2432    8.5021   22.9161 H       1  UNL1        0.1392
     28 H          -8.6079   -3.3210   24.0843 H       1  UNL1        0.1382
     29 H         -12.0265    9.0937   21.1354 H       1  UNL1        0.0871
     30 H          -7.4376   -4.3817   22.1085 H       1  UNL1        0.0755
     31 H         -10.2647    1.9970   21.2502 H       1  UNL1        0.0638
     32 H          -8.1195    4.5050   17.7220 H       1  UNL1        0.0665
     33 H          -6.6342    2.7288   17.3772 H       1  UNL1        0.1423
     34 H          -6.6941    1.3063   18.3155 H       1  UNL1        0.1423
     35 H          -9.1798   -0.9419   23.6944 H       1  UNL1        0.4548
     36 H          -9.9771    5.9450   22.9018 H       1  UNL1        0.4550
     37 H          -9.0302    0.8083   22.0656 H       1  UNL1        0.1612
@<TRIPOS>UNITY_ATOM_ATTR
16 1
charge 1
17 1
charge 1
@<TRIPOS>BOND
     1     1    19    1
     2     2     4   ar
     3     2    17   ar
     4     3     5   ar
     5     3    16   ar
     6     4    19   ar
     7     5    22   ar
     8     6     8   ar
     9     6    11   ar
    10     7     9   ar
    11     7    10   ar
    12     8     9   ar
    13     8    14    1
    14     9    15    1
    15    10    11   ar
    16    10    21    1
    17    11    23    1
    18    12    16   ar
    19    12    18    1
    20    12    22   ar
    21    13    17   ar
    22    13    19   ar
    23    13    23    1
    24    14    18   am
    25    14    20    2
    26     1    24    1
    27     1    25    1
    28     1    26    1
    29     2    27    1
    30     3    28    1
    31     4    29    1
    32     5    30    1
    33     6    31    1
    34     7    32    1
    35    15    33    1
    36    15    34    1
    37    16    35    1
    38    17    36    1
    39    18    37    1
