@<TRIPOS>MOLECULE
2etr_ligand
 40 41 0 0 0
SMALL
USER_CHARGES

@<TRIPOS>ATOM
      1 C          54.6740  103.0980   34.0250 C.3     1  UNL1       -0.0215
      2 C          51.0210   98.2460   27.4780 C.ar    1  UNL1       -0.0223
      3 C          50.4320  100.3340   26.4560 C.ar    1  UNL1       -0.0223
      4 C          50.6360   97.5930   26.3080 C.ar    1  UNL1        0.0293
      5 C          50.0570   99.6300   25.3100 C.ar    1  UNL1        0.0293
      6 C          51.8370  102.8340   32.6670 C.3     1  UNL1       -0.0444
      7 C          53.7390  103.4220   31.1040 C.3     1  UNL1       -0.0444
      8 C          50.9950  102.4390   31.4520 C.3     1  UNL1       -0.0415
      9 C          52.8670  103.0170   29.9120 C.3     1  UNL1       -0.0415
     10 C          50.9190   99.6340   27.5640 C.ar    1  UNL1        0.0363
     11 C          52.9100  103.8740   32.3170 C.3     1  UNL1        0.0017
     12 C          51.8760  101.9220   30.3110 C.3     1  UNL1        0.0359
     13 C          53.7690  104.2330   33.5400 C.3     1  UNL1       -0.0244
     14 C          51.0510  101.4790   29.1290 C.2     1  UNL1        0.2203
     15 N          54.5870  105.3960   33.2510 N.4     1  UNL1        0.2207
     16 N          50.1660   98.2910   25.2620 N.ar    1  UNL1       -0.2631
     17 N          51.3120  100.2310   28.7210 N.am    1  UNL1       -0.2852
     18 O          50.2210  102.2230   28.6230 O.2     1  UNL1       -0.2752
     19 H          54.0793  102.2351   34.2409 H       1  UNL1        0.0284
     20 H          55.1895  103.4065   34.9104 H       1  UNL1        0.0284
     21 H          55.3859  102.8589   33.2628 H       1  UNL1        0.0284
     22 H          51.3807   97.7033   28.2787 H       1  UNL1        0.0651
     23 H          50.3504  101.3624   26.4849 H       1  UNL1        0.0651
     24 H          50.7128   96.5658   26.2456 H       1  UNL1        0.0830
     25 H          49.6926  100.1426   24.4918 H       1  UNL1        0.0830
     26 H          52.3180  101.9591   33.0518 H       1  UNL1        0.0270
     27 H          51.1820  103.2699   33.3922 H       1  UNL1        0.0270
     28 H          54.3756  104.2282   30.8045 H       1  UNL1        0.0270
     29 H          54.3031  102.5622   31.3995 H       1  UNL1        0.0270
     30 H          50.4503  103.2949   31.1119 H       1  UNL1        0.0273
     31 H          50.3257  101.6569   31.7439 H       1  UNL1        0.0273
     32 H          53.4948  102.6525   29.1259 H       1  UNL1        0.0273
     33 H          52.3171  103.8737   29.5826 H       1  UNL1        0.0273
     34 H          52.4200  104.7805   32.0289 H       1  UNL1        0.0355
     35 H          52.4137  101.0614   30.6504 H       1  UNL1        0.0394
     36 H          53.0751  104.4350   34.3291 H       1  UNL1        0.0850
     37 H          55.2375  105.1753   32.4970 H       1  UNL1        0.1997
     38 H          55.1108  105.6592   34.0857 H       1  UNL1        0.1997
     39 H          53.9878  106.1711   32.9671 H       1  UNL1        0.1997
     40 H          51.8530   99.6796   29.3313 H       1  UNL1        0.1548
@<TRIPOS>UNITY_ATOM_ATTR
15 1
charge 1
@<TRIPOS>BOND
     1     1    13    1
     2     2     4   ar
     3     2    10   ar
     4     3     5   ar
     5     3    10   ar
     6     4    16   ar
     7     5    16   ar
     8     6     8    1
     9     6    11    1
    10     7     9    1
    11     7    11    1
    12     8    12    1
    13     9    12    1
    14    10    17    1
    15    11    13    1
    16    12    14    1
    17    13    15    1
    18    14    17   am
    19    14    18    2
    20     1    19    1
    21     1    20    1
    22     1    21    1
    23     2    22    1
    24     3    23    1
    25     4    24    1
    26     5    25    1
    27     6    26    1
    28     6    27    1
    29     7    28    1
    30     7    29    1
    31     8    30    1
    32     8    31    1
    33     9    32    1
    34     9    33    1
    35    11    34    1
    36    12    35    1
    37    13    36    1
    38    15    37    1
    39    15    38    1
    40    15    39    1
    41    17    40    1
